
*** ChampSim Multicore Out-of-Order Simulator ***

Warmup Instructions: 50000000
Simulation Instructions: 200000000
Number of CPUs: 1
LLC sets: 2048
LLC ways: 16
Off-chip DRAM Size: 4096 MB Channels: 1 Width: 64-bit Data Rate: 3200 MT/s

CPU 0 runs /home/nupur/Champsim_timeliness/dpc3_traces/bfs-14.trace.gz
CPU 0 Bimodal branch predictor
Heartbeat CPU 0 instructions: 10000003 cycles: 2954825 heartbeat IPC: 3.3843 cumulative IPC: 3.3843 (Simulation time: 0 hr 0 min 14 sec) 
Heartbeat CPU 0 instructions: 20000003 cycles: 6400221 heartbeat IPC: 2.90242 cumulative IPC: 3.12489 (Simulation time: 0 hr 0 min 43 sec) 
Heartbeat CPU 0 instructions: 30000003 cycles: 9863930 heartbeat IPC: 2.88708 cumulative IPC: 3.04138 (Simulation time: 0 hr 1 min 13 sec) 
counter 10000000
PREFETCH_HIT_RATE, 0.624312, 
BLOCKS_TO_PREFETCH 10
Heartbeat CPU 0 instructions: 40000001 cycles: 13324855 heartbeat IPC: 2.8894 cumulative IPC: 3.00191 (Simulation time: 0 hr 1 min 44 sec) 
Heartbeat CPU 0 instructions: 50000002 cycles: 16760400 heartbeat IPC: 2.91075 cumulative IPC: 2.98322 (Simulation time: 0 hr 2 min 15 sec) 

Warmup complete CPU 0 instructions: 50000002 cycles: 16760400 (Simulation time: 0 hr 2 min 15 sec) 

counter 10000000
PREFETCH_HIT_RATE, 1, 
BLOCKS_TO_PREFETCH 16
counter 20000000
PREFETCH_HIT_RATE, 0.935025, 
BLOCKS_TO_PREFETCH 16
Heartbeat CPU 0 instructions: 60000000 cycles: 40717544 heartbeat IPC: 0.417412 cumulative IPC: 0.417412 (Simulation time: 0 hr 2 min 37 sec) 
counter 30000000
PREFETCH_HIT_RATE, 0.934911, 
BLOCKS_TO_PREFETCH 16
Heartbeat CPU 0 instructions: 70000001 cycles: 48183558 heartbeat IPC: 1.3394 cumulative IPC: 0.636473 (Simulation time: 0 hr 2 min 50 sec) 
counter 40000000
PREFETCH_HIT_RATE, 0.933523, 
BLOCKS_TO_PREFETCH 16
Heartbeat CPU 0 instructions: 80000002 cycles: 61067867 heartbeat IPC: 0.776138 cumulative IPC: 0.677087 (Simulation time: 0 hr 3 min 11 sec) 
counter 50000000
PREFETCH_HIT_RATE, 0.935864, 
BLOCKS_TO_PREFETCH 16
counter 60000000
PREFETCH_HIT_RATE, 0.868692, 
BLOCKS_TO_PREFETCH 14
Heartbeat CPU 0 instructions: 90000000 cycles: 83615958 heartbeat IPC: 0.443496 cumulative IPC: 0.598305 (Simulation time: 0 hr 3 min 37 sec) 
counter 70000000
PREFETCH_HIT_RATE, 0.821908, 
BLOCKS_TO_PREFETCH 14
counter 80000000
PREFETCH_HIT_RATE, 0.825599, 
BLOCKS_TO_PREFETCH 14
counter 90000000
PREFETCH_HIT_RATE, 0.821724, 
BLOCKS_TO_PREFETCH 14
Heartbeat CPU 0 instructions: 100000000 cycles: 113266214 heartbeat IPC: 0.337265 cumulative IPC: 0.518103 (Simulation time: 0 hr 4 min 5 sec) 
counter 100000000
PREFETCH_HIT_RATE, 0.822957, 
BLOCKS_TO_PREFETCH 14
counter 110000000
PREFETCH_HIT_RATE, 0.822245, 
BLOCKS_TO_PREFETCH 14
counter 120000000
PREFETCH_HIT_RATE, 0.823201, 
BLOCKS_TO_PREFETCH 14
Heartbeat CPU 0 instructions: 110000000 cycles: 142891570 heartbeat IPC: 0.337549 cumulative IPC: 0.475695 (Simulation time: 0 hr 4 min 33 sec) 
counter 130000000
PREFETCH_HIT_RATE, 0.823261, 
BLOCKS_TO_PREFETCH 14
counter 140000000
PREFETCH_HIT_RATE, 0.8415, 
BLOCKS_TO_PREFETCH 14
counter 150000000
PREFETCH_HIT_RATE, 0.850778, 
BLOCKS_TO_PREFETCH 14
counter 160000000
PREFETCH_HIT_RATE, 0.85334, 
BLOCKS_TO_PREFETCH 14
Heartbeat CPU 0 instructions: 120000001 cycles: 179448072 heartbeat IPC: 0.273549 cumulative IPC: 0.430272 (Simulation time: 0 hr 5 min 2 sec) 
counter 170000000
PREFETCH_HIT_RATE, 0.85213, 
BLOCKS_TO_PREFETCH 14
counter 180000000
PREFETCH_HIT_RATE, 0.888962, 
BLOCKS_TO_PREFETCH 14
counter 190000000
PREFETCH_HIT_RATE, 0.929567, 
BLOCKS_TO_PREFETCH 16
Heartbeat CPU 0 instructions: 130000001 cycles: 209571935 heartbeat IPC: 0.331963 cumulative IPC: 0.414913 (Simulation time: 0 hr 5 min 26 sec) 
counter 200000000
PREFETCH_HIT_RATE, 0.935326, 
BLOCKS_TO_PREFETCH 16
Heartbeat CPU 0 instructions: 140000002 cycles: 222280132 heartbeat IPC: 0.786894 cumulative IPC: 0.437914 (Simulation time: 0 hr 5 min 42 sec) 
counter 210000000
PREFETCH_HIT_RATE, 0.931825, 
BLOCKS_TO_PREFETCH 16
Heartbeat CPU 0 instructions: 150000001 cycles: 230705649 heartbeat IPC: 1.18687 cumulative IPC: 0.467409 (Simulation time: 0 hr 6 min 0 sec) 
counter 220000000
PREFETCH_HIT_RATE, 0.935093, 
BLOCKS_TO_PREFETCH 16
counter 230000000
PREFETCH_HIT_RATE, 0.935868, 
BLOCKS_TO_PREFETCH 16
Heartbeat CPU 0 instructions: 160000000 cycles: 249902879 heartbeat IPC: 0.520908 cumulative IPC: 0.471814 (Simulation time: 0 hr 6 min 21 sec) 
counter 240000000
PREFETCH_HIT_RATE, 0.815988, 
BLOCKS_TO_PREFETCH 14
counter 250000000
PREFETCH_HIT_RATE, 0.823801, 
BLOCKS_TO_PREFETCH 14
counter 260000000
PREFETCH_HIT_RATE, 0.826657, 
BLOCKS_TO_PREFETCH 14
Heartbeat CPU 0 instructions: 170000000 cycles: 280097500 heartbeat IPC: 0.331185 cumulative IPC: 0.45569 (Simulation time: 0 hr 6 min 52 sec) 
counter 270000000
PREFETCH_HIT_RATE, 0.8234, 
BLOCKS_TO_PREFETCH 14
counter 280000000
PREFETCH_HIT_RATE, 0.82371, 
BLOCKS_TO_PREFETCH 14
counter 290000000
PREFETCH_HIT_RATE, 0.824792, 
BLOCKS_TO_PREFETCH 14
Heartbeat CPU 0 instructions: 180000002 cycles: 310035995 heartbeat IPC: 0.334018 cumulative IPC: 0.443269 (Simulation time: 0 hr 7 min 20 sec) 
counter 300000000
PREFETCH_HIT_RATE, 0.824371, 
BLOCKS_TO_PREFETCH 14
counter 310000000
PREFETCH_HIT_RATE, 0.825883, 
BLOCKS_TO_PREFETCH 14
counter 320000000
PREFETCH_HIT_RATE, 0.838119, 
BLOCKS_TO_PREFETCH 14
Heartbeat CPU 0 instructions: 190000003 cycles: 343045444 heartbeat IPC: 0.302944 cumulative IPC: 0.429073 (Simulation time: 0 hr 7 min 49 sec) 
counter 330000000
PREFETCH_HIT_RATE, 0.844978, 
BLOCKS_TO_PREFETCH 14
counter 340000000
PREFETCH_HIT_RATE, 0.844616, 
BLOCKS_TO_PREFETCH 14
counter 350000000
PREFETCH_HIT_RATE, 0.845913, 
BLOCKS_TO_PREFETCH 14
counter 360000000
PREFETCH_HIT_RATE, 0.878429, 
BLOCKS_TO_PREFETCH 14
Heartbeat CPU 0 instructions: 200000002 cycles: 379359633 heartbeat IPC: 0.275374 cumulative IPC: 0.41368 (Simulation time: 0 hr 8 min 17 sec) 
counter 370000000
PREFETCH_HIT_RATE, 0.929404, 
BLOCKS_TO_PREFETCH 16
counter 380000000
PREFETCH_HIT_RATE, 0.935272, 
BLOCKS_TO_PREFETCH 16
Heartbeat CPU 0 instructions: 210000002 cycles: 399753044 heartbeat IPC: 0.490354 cumulative IPC: 0.417763 (Simulation time: 0 hr 8 min 37 sec) 
counter 390000000
PREFETCH_HIT_RATE, 0.931117, 
BLOCKS_TO_PREFETCH 16
Heartbeat CPU 0 instructions: 220000000 cycles: 407453987 heartbeat IPC: 1.29854 cumulative IPC: 0.435124 (Simulation time: 0 hr 8 min 52 sec) 
counter 400000000
PREFETCH_HIT_RATE, 0.934922, 
BLOCKS_TO_PREFETCH 16
Heartbeat CPU 0 instructions: 230000001 cycles: 422339005 heartbeat IPC: 0.671817 cumulative IPC: 0.44381 (Simulation time: 0 hr 9 min 13 sec) 
counter 410000000
PREFETCH_HIT_RATE, 0.93587, 
BLOCKS_TO_PREFETCH 16
counter 420000000
PREFETCH_HIT_RATE, 0.766616, 
BLOCKS_TO_PREFETCH 12
counter 430000000
PREFETCH_HIT_RATE, 0.80314, 
BLOCKS_TO_PREFETCH 14
Heartbeat CPU 0 instructions: 240000000 cycles: 449270055 heartbeat IPC: 0.371319 cumulative IPC: 0.439297 (Simulation time: 0 hr 9 min 41 sec) 
counter 440000000
PREFETCH_HIT_RATE, 0.818396, 
BLOCKS_TO_PREFETCH 14
counter 450000000
PREFETCH_HIT_RATE, 0.816612, 
BLOCKS_TO_PREFETCH 14
counter 460000000
PREFETCH_HIT_RATE, 0.816923, 
BLOCKS_TO_PREFETCH 14
Heartbeat CPU 0 instructions: 250000001 cycles: 477668813 heartbeat IPC: 0.352128 cumulative IPC: 0.433926 (Simulation time: 0 hr 10 min 10 sec) 
Finished CPU 0 instructions: 200000003 cycles: 460908414 cumulative IPC: 0.433926 (Simulation time: 0 hr 10 min 10 sec) 

ChampSim completed all CPUs

Region of Interest Statistics

CPU 0 cumulative IPC: 0.433926 instructions: 200000003 cycles: 460908414
L1D TOTAL     ACCESS:   38915346  HIT:   34123456  MISS:    4791890
L1D LOAD      ACCESS:   33713173  HIT:   29157557  MISS:    4555616         0
L1D RFO       ACCESS:    5202173  HIT:    4965899  MISS:     236274         0
L1D PREFETCH  ACCESS:          0  HIT:          0  MISS:          0         0
L1D WRITEBACK ACCESS:          0  HIT:          0  MISS:          0         0
L1D AVERAGE MISS LATENCY: 58.4541 cycles
L1I TOTAL     ACCESS:   41249451  HIT:   41249436  MISS:         15
L1I LOAD      ACCESS:   41249451  HIT:   41249436  MISS:         15         0
L1I RFO       ACCESS:          0  HIT:          0  MISS:          0         0
L1I PREFETCH  ACCESS:          0  HIT:          0  MISS:          0         0
L1I WRITEBACK ACCESS:          0  HIT:          0  MISS:          0         0
L1I AVERAGE MISS LATENCY: 209.867 cycles
L2C TOTAL     ACCESS:    5433252  HIT:    1933091  MISS:    3500161
L2C LOAD      ACCESS:    4555629  HIT:    1284789  MISS:    3270840         0
L2C RFO       ACCESS:     236274  HIT:       6971  MISS:     229303         0
L2C PREFETCH  ACCESS:          0  HIT:          0  MISS:          0         0
L2C WRITEBACK ACCESS:     641349  HIT:     641331  MISS:         18         0
L2C AVERAGE MISS LATENCY: 59.1736 cycles
 AMAT: 1.64421 cycles
LLC TOTAL     ACCESS:   44996127  HIT:   38956158  MISS:    6039969
LLC LOAD      ACCESS:    3270840  HIT:    2835288  MISS:     435552         0
LLC RFO       ACCESS:     229303  HIT:       2529  MISS:     226774         0
LLC PREFETCH  ACCESS:   40884874  HIT:   35537049  MISS:    5347825         0
LLC WRITEBACK ACCESS:     611110  HIT:     581292  MISS:      29818         0
LLC PREFETCH  REQUESTED:  146494318  ISSUED:  141976600  USEFUL:    3495698  USELESS:    3334347 pf_FILL:    6848363
LLC ON_TIME:    3495698  LATE:      33687  LATE_CONSIDER:      33687
LLC AVERAGE MISS LATENCY: 161.565 cycles
 AMAT: 2.07386 cycles
Major fault: 0 Minor fault: 27045
LLC Next Line Prefetcher Final Stats: 

Queue level details

 RQ_Merged:          0 RQ_Access:    3500143 RQ_FULL:          0 RQ_ToCache:    3500143 RQ_FORWARDED:          0
 WQ_Merged:          0 WQ_Access:     611110 WQ_FULL:          0 WQ_ToCache:     611110 WQ_FORWARDED:          0
 PQ_Merged:   94683144 PQ_Access:  141976600 PQ_FULL:          0 PQ_ToCache:   47293456 PQ_FORWARDED:          0

############Universal_Stats##############

LOAD  Access:    3270840 HIT:    2835288 MISS:     435552 STALL:        416 MSHR_MERGED:      33687

RFO  Access:     229303 HIT:       2529 MISS:     226774 STALL:          0 MSHR_MERGED:          0

PREFETCH  Access:   41810922 HIT:   35537049 MISS:    6273873 STALL:       7766 MSHR_MERGED:     892348

WRITEBACK  Access:     611110 HIT:     581292 MISS:      29818 STALL:          0 MSHR_MERGED:          0

 load_hit: 0 load_miss: 0 store_hit: 0 store_miss: 0 count_else: 0 count_else: 0

 PQ_overflow: 4517544 PQ_boundry_check: 174

 Bucket              cumulative_count                No_of_Late_PKT                        Average
[0:19]                         53823                          5444                             9
[20:39]                        169094                          5616                            30
[40:59]                        193641                          3960                            48
[60:79]                        225896                          3302                            68
[80:99]                        144460                          1631                            88
[100:119]                        140614                          1290                           109
[120:139]                        198097                          1517                           130
[140:159]                        184483                          1234                           149
[160:179]                        307780                          1830                           168
[180:199]                        122105                           647                           188
[200:219]                       3282990                          7216                           454

 RQ_Late_count          0
 Average no of cycles a packet late: 148

DRAM Statistics
 CHANNEL 0
 RQ ROW_BUFFER_HIT:    4081320  ROW_BUFFER_MISS:    1928799
 DBUS_CONGESTED:    2768931
 WQ ROW_BUFFER_HIT:     255448  ROW_BUFFER_MISS:     348445  FULL:          0

 AVG_CONGESTED_CYCLE: 6

CPU 0 Branch Prediction Accuracy: 84.7342% MPKI: 33.1619 Average ROB Occupancy at Mispredict: 6.1238

Branch types
NOT_BRANCH: 156554107 78.2771%
BRANCH_DIRECT_JUMP: 1976 0.000988%
BRANCH_INDIRECT: 3 1.5e-06%
BRANCH_CONDITIONAL: 43443280 21.7216%
BRANCH_DIRECT_CALL: 308 0.000154%
BRANCH_INDIRECT_CALL: 9 4.5e-06%
BRANCH_RETURN: 317 0.0001585%
BRANCH_OTHER: 0 0%


gzip: stdout: Broken pipe
