
*** ChampSim Multicore Out-of-Order Simulator ***

Warmup Instructions: 50000000
Simulation Instructions: 200000000
Number of CPUs: 1
LLC sets: 2048
LLC ways: 16
Off-chip DRAM Size: 4096 MB Channels: 1 Width: 64-bit Data Rate: 3200 MT/s

CPU 0 runs /home/nupur/Champsim_timeliness/dpc3_traces/sssp-5.trace.gz
CPU 0 Bimodal branch predictor
Heartbeat CPU 0 instructions: 10000001 cycles: 3718065 heartbeat IPC: 2.68957 cumulative IPC: 2.68957 (Simulation time: 0 hr 0 min 27 sec) 
Heartbeat CPU 0 instructions: 20000000 cycles: 7711471 heartbeat IPC: 2.50413 cumulative IPC: 2.59354 (Simulation time: 0 hr 0 min 58 sec) 
Epoch Counter 10000000
Epoch_Bandwidth = 26.3833
BLOCKS_TO_PREFETCH 9
Heartbeat CPU 0 instructions: 30000003 cycles: 11833765 heartbeat IPC: 2.42583 cumulative IPC: 2.53512 (Simulation time: 0 hr 1 min 29 sec) 
Heartbeat CPU 0 instructions: 40000000 cycles: 16038437 heartbeat IPC: 2.37831 cumulative IPC: 2.49401 (Simulation time: 0 hr 2 min 1 sec) 
Epoch Counter 20000000
Epoch_Bandwidth = 15.9493
BLOCKS_TO_PREFETCH 15
Heartbeat CPU 0 instructions: 50000003 cycles: 20278199 heartbeat IPC: 2.35862 cumulative IPC: 2.4657 (Simulation time: 0 hr 2 min 33 sec) 

Warmup complete CPU 0 instructions: 50000003 cycles: 20278199 (Simulation time: 0 hr 2 min 33 sec) 

Epoch Counter 10000000
Epoch_Bandwidth = 24.9582
BLOCKS_TO_PREFETCH 11
Epoch Counter 20000000
Epoch_Bandwidth = 22.7434
BLOCKS_TO_PREFETCH 11
Heartbeat CPU 0 instructions: 60000002 cycles: 46747914 heartbeat IPC: 0.37779 cumulative IPC: 0.37779 (Simulation time: 0 hr 3 min 11 sec) 
Epoch Counter 30000000
Epoch_Bandwidth = 21.0486
BLOCKS_TO_PREFETCH 11
Epoch Counter 40000000
Epoch_Bandwidth = 22.9218
BLOCKS_TO_PREFETCH 11
Epoch Counter 50000000
Epoch_Bandwidth = 21.7482
BLOCKS_TO_PREFETCH 11
Heartbeat CPU 0 instructions: 70000001 cycles: 71751687 heartbeat IPC: 0.39994 cumulative IPC: 0.38855 (Simulation time: 0 hr 3 min 49 sec) 
Epoch Counter 60000000
Epoch_Bandwidth = 13.4424
BLOCKS_TO_PREFETCH 15
Epoch Counter 70000000
Epoch_Bandwidth = 30.2296
BLOCKS_TO_PREFETCH 9
Heartbeat CPU 0 instructions: 80000000 cycles: 95532449 heartbeat IPC: 0.420508 cumulative IPC: 0.398649 (Simulation time: 0 hr 4 min 28 sec) 
Epoch Counter 80000000
Epoch_Bandwidth = 24.0964
BLOCKS_TO_PREFETCH 11
Epoch Counter 90000000
Epoch_Bandwidth = 19.8581
BLOCKS_TO_PREFETCH 15
Heartbeat CPU 0 instructions: 90000001 cycles: 119796789 heartbeat IPC: 0.412127 cumulative IPC: 0.401935 (Simulation time: 0 hr 5 min 6 sec) 
Epoch Counter 100000000
Epoch_Bandwidth = 20.0503
BLOCKS_TO_PREFETCH 11
Epoch Counter 110000000
Epoch_Bandwidth = 28.7542
BLOCKS_TO_PREFETCH 9
Epoch Counter 120000000
Epoch_Bandwidth = 18.8223
BLOCKS_TO_PREFETCH 15
Heartbeat CPU 0 instructions: 100000002 cycles: 143822401 heartbeat IPC: 0.416223 cumulative IPC: 0.404713 (Simulation time: 0 hr 5 min 45 sec) 
Epoch Counter 130000000
Epoch_Bandwidth = 21.073
BLOCKS_TO_PREFETCH 11
Epoch Counter 140000000
Epoch_Bandwidth = 17.9905
BLOCKS_TO_PREFETCH 15
Heartbeat CPU 0 instructions: 110000000 cycles: 167936561 heartbeat IPC: 0.414694 cumulative IPC: 0.406343 (Simulation time: 0 hr 6 min 24 sec) 
Epoch Counter 150000000
Epoch_Bandwidth = 22.0618
BLOCKS_TO_PREFETCH 11
Epoch Counter 160000000
Epoch_Bandwidth = 20.6337
BLOCKS_TO_PREFETCH 11
Epoch Counter 170000000
Epoch_Bandwidth = 15.0089
BLOCKS_TO_PREFETCH 15
Heartbeat CPU 0 instructions: 120000000 cycles: 191568790 heartbeat IPC: 0.423151 cumulative IPC: 0.408662 (Simulation time: 0 hr 7 min 3 sec) 
Epoch Counter 180000000
Epoch_Bandwidth = 18.9635
BLOCKS_TO_PREFETCH 15
Epoch Counter 190000000
Epoch_Bandwidth = 26.6726
BLOCKS_TO_PREFETCH 9
Heartbeat CPU 0 instructions: 130000000 cycles: 214719781 heartbeat IPC: 0.431947 cumulative IPC: 0.411435 (Simulation time: 0 hr 7 min 44 sec) 
Epoch Counter 200000000
Epoch_Bandwidth = 28.8988
BLOCKS_TO_PREFETCH 9
Epoch Counter 210000000
Epoch_Bandwidth = 19.6007
BLOCKS_TO_PREFETCH 15
Heartbeat CPU 0 instructions: 140000000 cycles: 237986769 heartbeat IPC: 0.429793 cumulative IPC: 0.413397 (Simulation time: 0 hr 8 min 25 sec) 
Epoch Counter 220000000
Epoch_Bandwidth = 18.1242
BLOCKS_TO_PREFETCH 15
Epoch Counter 230000000
Epoch_Bandwidth = 22.4022
BLOCKS_TO_PREFETCH 11
Epoch Counter 240000000
Epoch_Bandwidth = 16.3402
BLOCKS_TO_PREFETCH 15
Heartbeat CPU 0 instructions: 150000000 cycles: 261328272 heartbeat IPC: 0.428421 cumulative IPC: 0.414852 (Simulation time: 0 hr 9 min 4 sec) 
Epoch Counter 250000000
Epoch_Bandwidth = 20.1946
BLOCKS_TO_PREFETCH 11
Epoch Counter 260000000
Epoch_Bandwidth = 17.788
BLOCKS_TO_PREFETCH 15
Heartbeat CPU 0 instructions: 160000000 cycles: 284274789 heartbeat IPC: 0.435796 cumulative IPC: 0.416672 (Simulation time: 0 hr 9 min 44 sec) 
Epoch Counter 270000000
Epoch_Bandwidth = 16.3325
BLOCKS_TO_PREFETCH 15
Epoch Counter 280000000
Epoch_Bandwidth = 15.9632
BLOCKS_TO_PREFETCH 15
Heartbeat CPU 0 instructions: 170000002 cycles: 307206608 heartbeat IPC: 0.436075 cumulative IPC: 0.418223 (Simulation time: 0 hr 10 min 25 sec) 
Epoch Counter 290000000
Epoch_Bandwidth = 19.2159
BLOCKS_TO_PREFETCH 15
Epoch Counter 300000000
Epoch_Bandwidth = 21.2586
BLOCKS_TO_PREFETCH 11
Heartbeat CPU 0 instructions: 180000000 cycles: 330266475 heartbeat IPC: 0.433654 cumulative IPC: 0.419371 (Simulation time: 0 hr 11 min 7 sec) 
Epoch Counter 310000000
Epoch_Bandwidth = 15.7058
BLOCKS_TO_PREFETCH 15
Epoch Counter 320000000
Epoch_Bandwidth = 25.0881
BLOCKS_TO_PREFETCH 9
Epoch Counter 330000000
Epoch_Bandwidth = 14.7314
BLOCKS_TO_PREFETCH 15
Heartbeat CPU 0 instructions: 190000001 cycles: 352440965 heartbeat IPC: 0.450969 cumulative IPC: 0.42148 (Simulation time: 0 hr 11 min 46 sec) 
Epoch Counter 340000000
Epoch_Bandwidth = 16.6939
BLOCKS_TO_PREFETCH 15
Epoch Counter 350000000
Epoch_Bandwidth = 15.2973
BLOCKS_TO_PREFETCH 15
Heartbeat CPU 0 instructions: 200000001 cycles: 375110001 heartbeat IPC: 0.44113 cumulative IPC: 0.422735 (Simulation time: 0 hr 12 min 27 sec) 
Epoch Counter 360000000
Epoch_Bandwidth = 15.7235
BLOCKS_TO_PREFETCH 15
Epoch Counter 370000000
Epoch_Bandwidth = 17.9817
BLOCKS_TO_PREFETCH 15
Heartbeat CPU 0 instructions: 210000000 cycles: 397560060 heartbeat IPC: 0.445433 cumulative IPC: 0.424086 (Simulation time: 0 hr 13 min 7 sec) 
Epoch Counter 380000000
Epoch_Bandwidth = 15.2378
BLOCKS_TO_PREFETCH 15
Epoch Counter 390000000
Epoch_Bandwidth = 16.6218
BLOCKS_TO_PREFETCH 15
Heartbeat CPU 0 instructions: 220000000 cycles: 420264403 heartbeat IPC: 0.440444 cumulative IPC: 0.425015 (Simulation time: 0 hr 13 min 47 sec) 
Epoch Counter 400000000
Epoch_Bandwidth = 13.9743
BLOCKS_TO_PREFETCH 15
Epoch Counter 410000000
Epoch_Bandwidth = 13.3331
BLOCKS_TO_PREFETCH 15
Epoch Counter 420000000
Epoch_Bandwidth = 14.4467
BLOCKS_TO_PREFETCH 15
Heartbeat CPU 0 instructions: 230000002 cycles: 442619116 heartbeat IPC: 0.447333 cumulative IPC: 0.426196 (Simulation time: 0 hr 14 min 28 sec) 
Epoch Counter 430000000
Epoch_Bandwidth = 16.7878
BLOCKS_TO_PREFETCH 15
Epoch Counter 440000000
Epoch_Bandwidth = 19.4327
BLOCKS_TO_PREFETCH 15
Heartbeat CPU 0 instructions: 240000002 cycles: 464981851 heartbeat IPC: 0.447172 cumulative IPC: 0.427251 (Simulation time: 0 hr 15 min 9 sec) 
Epoch Counter 450000000
Epoch_Bandwidth = 17.1381
BLOCKS_TO_PREFETCH 15
Epoch Counter 460000000
Epoch_Bandwidth = 14.6156
BLOCKS_TO_PREFETCH 15
Heartbeat CPU 0 instructions: 250000000 cycles: 487427289 heartbeat IPC: 0.445525 cumulative IPC: 0.428129 (Simulation time: 0 hr 15 min 49 sec) 
Finished CPU 0 instructions: 200000001 cycles: 467149091 cumulative IPC: 0.428129 (Simulation time: 0 hr 15 min 49 sec) 

ChampSim completed all CPUs

Region of Interest Statistics

CPU 0 cumulative IPC: 0.428129 instructions: 200000001 cycles: 467149091
L1D TOTAL     ACCESS:   43424392  HIT:   32605792  MISS:   10818600
L1D LOAD      ACCESS:   41369582  HIT:   31022430  MISS:   10347152         0
L1D RFO       ACCESS:    2054810  HIT:    1583362  MISS:     471448         0
L1D PREFETCH  ACCESS:          0  HIT:          0  MISS:          0         0
L1D WRITEBACK ACCESS:          0  HIT:          0  MISS:          0         0
L1D AVERAGE MISS LATENCY: 92.5286 cycles
L1I TOTAL     ACCESS:   25204931  HIT:   25204931  MISS:          0
L1I LOAD      ACCESS:   25204931  HIT:   25204931  MISS:          0         0
L1I RFO       ACCESS:          0  HIT:          0  MISS:          0         0
L1I PREFETCH  ACCESS:          0  HIT:          0  MISS:          0         0
L1I WRITEBACK ACCESS:          0  HIT:          0  MISS:          0         0
L1I AVERAGE MISS LATENCY: -nan cycles
L2C TOTAL     ACCESS:   12171363  HIT:    3966276  MISS:    8205087
L2C LOAD      ACCESS:   10347151  HIT:    2313218  MISS:    8033933         0
L2C RFO       ACCESS:     471437  HIT:     301668  MISS:     169769         0
L2C PREFETCH  ACCESS:          0  HIT:          0  MISS:          0         0
L2C WRITEBACK ACCESS:    1352775  HIT:    1351390  MISS:       1385         0
L2C AVERAGE MISS LATENCY: 101.699 cycles
 AMAT: 1.67413 cycles
LLC TOTAL     ACCESS:   32963494  HIT:   22419320  MISS:   10544174
LLC LOAD      ACCESS:    8033932  HIT:    4556928  MISS:    3477004         0
LLC RFO       ACCESS:     169768  HIT:      53921  MISS:     115847         0
LLC PREFETCH  ACCESS:   23920717  HIT:   17034312  MISS:    6886405         0
LLC WRITEBACK ACCESS:     839077  HIT:     774159  MISS:      64918         0
LLC PREFETCH  REQUESTED:   71490855  ISSUED:   68510659  USEFUL:    2640806  USELESS:    5565738 pf_FILL:    8212563
LLC ON_TIME:    2640806  LATE:     175960  LATE_CONSIDER:     175960
LLC AVERAGE MISS LATENCY: 187.26 cycles
 AMAT: 3.55899 cycles
Major fault: 0 Minor fault: 36712
LLC Next Line Prefetcher Final Stats: 

Queue level details

 RQ_Merged:          0 RQ_Access:    8203705 RQ_FULL:          0 RQ_ToCache:    8203703 RQ_FORWARDED:          0
 WQ_Merged:          0 WQ_Access:     839077 WQ_FULL:          0 WQ_ToCache:     839077 WQ_FORWARDED:          3
 PQ_Merged:   39656826 PQ_Access:   68510659 PQ_FULL:          0 PQ_ToCache:   28853832 PQ_FORWARDED:          0

############Universal_Stats##############

LOAD  Access:    8033935 HIT:    4556929 MISS:    3477006 STALL:          0 MSHR_MERGED:     175960

RFO  Access:     169769 HIT:      53922 MISS:     115847 STALL:          0 MSHR_MERGED:          0

PREFETCH  Access:   25266354 HIT:   17034313 MISS:    8232041 STALL:       1374 MSHR_MERGED:    1169675

WRITEBACK  Access:     839077 HIT:     774159 MISS:      64918 STALL:          0 MSHR_MERGED:          0

 load_hit: 0 load_miss: 0 store_hit: 0 store_miss: 0 count_else: 0 count_else: 0

 PQ_overflow: 2956842 PQ_boundry_check: 23354

 Bucket              cumulative_count                No_of_Late_PKT                        Average
[0:19]                        179803                         17865                            10
[20:39]                        508284                         17392                            29
[40:59]                        855555                         17183                            49
[60:79]                       1255139                         18180                            69
[80:99]                       1208303                         13549                            89
[100:119]                       1268350                         11586                           109
[120:139]                       1402798                         10833                           129
[140:159]                       1734032                         11557                           150
[160:179]                       2618855                         15498                           168
[180:199]                       1811674                          9588                           188
[200:219]                       9013734                         32729                           275

 RQ_Late_count          0
 Average no of cycles a packet late: 123

DRAM Statistics
 CHANNEL 0
 RQ ROW_BUFFER_HIT:    5936855  ROW_BUFFER_MISS:    4541945
 DBUS_CONGESTED:    4673073
 WQ ROW_BUFFER_HIT:     362709  ROW_BUFFER_MISS:     400002  FULL:          0

 AVG_CONGESTED_CYCLE: 6

CPU 0 Branch Prediction Accuracy: 97.5803% MPKI: 3.59894 Average ROB Occupancy at Mispredict: 148.583

Branch types
NOT_BRANCH: 170252779 85.1264%
BRANCH_DIRECT_JUMP: 9217196 4.6086%
BRANCH_INDIRECT: 0 0%
BRANCH_CONDITIONAL: 20527371 10.2637%
BRANCH_DIRECT_CALL: 1324 0.000662%
BRANCH_INDIRECT_CALL: 0 0%
BRANCH_RETURN: 1324 0.000662%
BRANCH_OTHER: 0 0%


gzip: stdout: Broken pipe
