
*** ChampSim Multicore Out-of-Order Simulator ***

Warmup Instructions: 50000000
Simulation Instructions: 200000000
Number of CPUs: 1
LLC sets: 2048
LLC ways: 16
Off-chip DRAM Size: 4096 MB Channels: 1 Width: 64-bit Data Rate: 3200 MT/s

CPU 0 runs /home/nupur/Champsim_timeliness/dpc3_traces/605.mcf_s-665B.champsimtrace.xz
CPU 0 Bimodal branch predictor
Heartbeat CPU 0 instructions: 10000000 cycles: 4100976 heartbeat IPC: 2.43844 cumulative IPC: 2.43844 (Simulation time: 0 hr 0 min 32 sec) 
Heartbeat CPU 0 instructions: 20000000 cycles: 8207176 heartbeat IPC: 2.43534 cumulative IPC: 2.43689 (Simulation time: 0 hr 1 min 4 sec) 
counter 10000000
BLOCKS_TO_PREFETCH 15
Heartbeat CPU 0 instructions: 30000002 cycles: 12300364 heartbeat IPC: 2.44308 cumulative IPC: 2.43895 (Simulation time: 0 hr 1 min 36 sec) 
Heartbeat CPU 0 instructions: 40000000 cycles: 16397568 heartbeat IPC: 2.44069 cumulative IPC: 2.43939 (Simulation time: 0 hr 2 min 9 sec) 
counter 20000000
BLOCKS_TO_PREFETCH 15
Heartbeat CPU 0 instructions: 50000000 cycles: 20490942 heartbeat IPC: 2.44297 cumulative IPC: 2.4401 (Simulation time: 0 hr 2 min 41 sec) 

Warmup complete CPU 0 instructions: 50000004 cycles: 20490943 (Simulation time: 0 hr 2 min 41 sec) 

counter 10000000
BLOCKS_TO_PREFETCH 13
counter 20000000
BLOCKS_TO_PREFETCH 13
Heartbeat CPU 0 instructions: 60000001 cycles: 45622673 heartbeat IPC: 0.397903 cumulative IPC: 0.397903 (Simulation time: 0 hr 3 min 9 sec) 
counter 30000000
BLOCKS_TO_PREFETCH 13
counter 40000000
BLOCKS_TO_PREFETCH 13
counter 50000000
BLOCKS_TO_PREFETCH 13
Heartbeat CPU 0 instructions: 70000003 cycles: 70572774 heartbeat IPC: 0.4008 cumulative IPC: 0.399346 (Simulation time: 0 hr 3 min 36 sec) 
counter 60000000
BLOCKS_TO_PREFETCH 13
counter 70000000
BLOCKS_TO_PREFETCH 13
Heartbeat CPU 0 instructions: 80000000 cycles: 95581442 heartbeat IPC: 0.399861 cumulative IPC: 0.399518 (Simulation time: 0 hr 4 min 4 sec) 
counter 80000000
BLOCKS_TO_PREFETCH 13
counter 90000000
BLOCKS_TO_PREFETCH 13
counter 100000000
BLOCKS_TO_PREFETCH 13
Heartbeat CPU 0 instructions: 90000002 cycles: 121141663 heartbeat IPC: 0.391233 cumulative IPC: 0.397414 (Simulation time: 0 hr 4 min 31 sec) 
counter 110000000
BLOCKS_TO_PREFETCH 13
counter 120000000
BLOCKS_TO_PREFETCH 13
Heartbeat CPU 0 instructions: 100000000 cycles: 145429192 heartbeat IPC: 0.411734 cumulative IPC: 0.400198 (Simulation time: 0 hr 4 min 58 sec) 
counter 130000000
BLOCKS_TO_PREFETCH 13
counter 140000000
BLOCKS_TO_PREFETCH 13
Heartbeat CPU 0 instructions: 110000000 cycles: 169861171 heartbeat IPC: 0.4093 cumulative IPC: 0.401686 (Simulation time: 0 hr 5 min 24 sec) 
counter 150000000
BLOCKS_TO_PREFETCH 13
counter 160000000
BLOCKS_TO_PREFETCH 13
counter 170000000
BLOCKS_TO_PREFETCH 13
Heartbeat CPU 0 instructions: 120000000 cycles: 193994242 heartbeat IPC: 0.414369 cumulative IPC: 0.403451 (Simulation time: 0 hr 5 min 51 sec) 
counter 180000000
BLOCKS_TO_PREFETCH 13
counter 190000000
BLOCKS_TO_PREFETCH 13
Heartbeat CPU 0 instructions: 130000000 cycles: 218005489 heartbeat IPC: 0.416472 cumulative IPC: 0.405033 (Simulation time: 0 hr 6 min 17 sec) 
counter 200000000
BLOCKS_TO_PREFETCH 13
counter 210000000
BLOCKS_TO_PREFETCH 13
counter 220000000
BLOCKS_TO_PREFETCH 13
Heartbeat CPU 0 instructions: 140000002 cycles: 242585196 heartbeat IPC: 0.40684 cumulative IPC: 0.405233 (Simulation time: 0 hr 6 min 43 sec) 
counter 230000000
BLOCKS_TO_PREFETCH 13
counter 240000000
BLOCKS_TO_PREFETCH 13
Heartbeat CPU 0 instructions: 150000000 cycles: 267111973 heartbeat IPC: 0.407718 cumulative IPC: 0.40548 (Simulation time: 0 hr 7 min 10 sec) 
counter 250000000
BLOCKS_TO_PREFETCH 13
counter 260000000
BLOCKS_TO_PREFETCH 13
counter 270000000
BLOCKS_TO_PREFETCH 13
Heartbeat CPU 0 instructions: 160000001 cycles: 291328551 heartbeat IPC: 0.41294 cumulative IPC: 0.406147 (Simulation time: 0 hr 7 min 37 sec) 
counter 280000000
BLOCKS_TO_PREFETCH 13
counter 290000000
BLOCKS_TO_PREFETCH 13
Heartbeat CPU 0 instructions: 170000000 cycles: 316172567 heartbeat IPC: 0.402511 cumulative IPC: 0.405842 (Simulation time: 0 hr 8 min 4 sec) 
counter 300000000
BLOCKS_TO_PREFETCH 13
counter 310000000
BLOCKS_TO_PREFETCH 13
Heartbeat CPU 0 instructions: 180000001 cycles: 340294284 heartbeat IPC: 0.414564 cumulative IPC: 0.4065 (Simulation time: 0 hr 8 min 30 sec) 
counter 320000000
BLOCKS_TO_PREFETCH 13
counter 330000000
BLOCKS_TO_PREFETCH 13
counter 340000000
BLOCKS_TO_PREFETCH 13
Heartbeat CPU 0 instructions: 190000002 cycles: 364676012 heartbeat IPC: 0.410143 cumulative IPC: 0.406758 (Simulation time: 0 hr 8 min 57 sec) 
counter 350000000
BLOCKS_TO_PREFETCH 13
counter 360000000
BLOCKS_TO_PREFETCH 13
Heartbeat CPU 0 instructions: 200000000 cycles: 389165484 heartbeat IPC: 0.408339 cumulative IPC: 0.406863 (Simulation time: 0 hr 9 min 23 sec) 
counter 370000000
BLOCKS_TO_PREFETCH 13
counter 380000000
BLOCKS_TO_PREFETCH 13
counter 390000000
BLOCKS_TO_PREFETCH 13
Heartbeat CPU 0 instructions: 210000000 cycles: 413671379 heartbeat IPC: 0.408065 cumulative IPC: 0.406938 (Simulation time: 0 hr 9 min 50 sec) 
counter 400000000
BLOCKS_TO_PREFETCH 13
counter 410000000
BLOCKS_TO_PREFETCH 13
Heartbeat CPU 0 instructions: 220000000 cycles: 437731580 heartbeat IPC: 0.415624 cumulative IPC: 0.407439 (Simulation time: 0 hr 10 min 16 sec) 
counter 420000000
BLOCKS_TO_PREFETCH 13
counter 430000000
BLOCKS_TO_PREFETCH 13
counter 440000000
BLOCKS_TO_PREFETCH 13
Heartbeat CPU 0 instructions: 230000000 cycles: 462636211 heartbeat IPC: 0.401532 cumulative IPC: 0.407106 (Simulation time: 0 hr 10 min 43 sec) 
counter 450000000
BLOCKS_TO_PREFETCH 13
counter 460000000
BLOCKS_TO_PREFETCH 13
Heartbeat CPU 0 instructions: 240000000 cycles: 486513400 heartbeat IPC: 0.41881 cumulative IPC: 0.407706 (Simulation time: 0 hr 11 min 9 sec) 
counter 470000000
BLOCKS_TO_PREFETCH 13
counter 480000000
BLOCKS_TO_PREFETCH 13
counter 490000000
BLOCKS_TO_PREFETCH 13
Heartbeat CPU 0 instructions: 250000001 cycles: 510780420 heartbeat IPC: 0.412082 cumulative IPC: 0.407922 (Simulation time: 0 hr 11 min 35 sec) 
Finished CPU 0 instructions: 200000001 cycles: 490289478 cumulative IPC: 0.407922 (Simulation time: 0 hr 11 min 35 sec) 

ChampSim completed all CPUs

Region of Interest Statistics

CPU 0 cumulative IPC: 0.407922 instructions: 200000001 cycles: 490289478
L1D TOTAL     ACCESS:   75300482  HIT:   68325291  MISS:    6975191
L1D LOAD      ACCESS:   53028900  HIT:   46807048  MISS:    6221852         0
L1D RFO       ACCESS:   22271582  HIT:   21518243  MISS:     753339         0
L1D PREFETCH  ACCESS:          0  HIT:          0  MISS:          0         0
L1D WRITEBACK ACCESS:          0  HIT:          0  MISS:          0         0
L1D AVERAGE MISS LATENCY: 53.5338 cycles
L1I TOTAL     ACCESS:   38681006  HIT:   38681004  MISS:          2
L1I LOAD      ACCESS:   38681006  HIT:   38681004  MISS:          2         0
L1I RFO       ACCESS:          0  HIT:          0  MISS:          0         0
L1I PREFETCH  ACCESS:          0  HIT:          0  MISS:          0         0
L1I WRITEBACK ACCESS:          0  HIT:          0  MISS:          0         0
L1I AVERAGE MISS LATENCY: 215 cycles
L2C TOTAL     ACCESS:    8020318  HIT:    3668729  MISS:    4351589
L2C LOAD      ACCESS:    6221827  HIT:    2176359  MISS:    4045468         0
L2C RFO       ACCESS:     753322  HIT:     447812  MISS:     305510         0
L2C PREFETCH  ACCESS:          0  HIT:          0  MISS:          0         0
L2C WRITEBACK ACCESS:    1045169  HIT:    1044558  MISS:        611         0
L2C AVERAGE MISS LATENCY: 61.2308 cycles
 AMAT: 1.54257 cycles
LLC TOTAL     ACCESS:   17096262  HIT:   14834062  MISS:    2262200
LLC LOAD      ACCESS:    4045464  HIT:    3355657  MISS:     689807         0
LLC RFO       ACCESS:     305503  HIT:     301445  MISS:       4058         0
LLC PREFETCH  ACCESS:   12244258  HIT:   10689596  MISS:    1554662         0
LLC WRITEBACK ACCESS:     501037  HIT:     487364  MISS:      13673         0
LLC PREFETCH  REQUESTED:   71790990  ISSUED:   62524794  USEFUL:    1780402  USELESS:     229534 pf_FILL:    2011465
LLC ON_TIME:    1780402  LATE:      16931  LATE_CONSIDER:      16931
LLC AVERAGE MISS LATENCY: 167.195 cycles
 AMAT: 2.05857 cycles
Major fault: 0 Minor fault: 30608
LLC Next Line Prefetcher Final Stats: 

Queue level details

 RQ_Merged:          0 RQ_Access:    4350978 RQ_FULL:          0 RQ_ToCache:    4350967 RQ_FORWARDED:          0
 WQ_Merged:          0 WQ_Access:     501037 WQ_FULL:          0 WQ_ToCache:     501037 WQ_FORWARDED:         11
 PQ_Merged:   48247748 PQ_Access:   62524794 PQ_FULL:          0 PQ_ToCache:   14277046 PQ_FORWARDED:          0

############Universal_Stats##############

LOAD  Access:    4045468 HIT:    3355661 MISS:     689807 STALL:          0 MSHR_MERGED:      16931

RFO  Access:     305510 HIT:     301452 MISS:       4058 STALL:          0 MSHR_MERGED:          0

PREFETCH  Access:   12638461 HIT:   10689596 MISS:    1948865 STALL:          0 MSHR_MERGED:     377272

WRITEBACK  Access:     501037 HIT:     487364 MISS:      13673 STALL:          0 MSHR_MERGED:          0

 load_hit: 0 load_miss: 0 store_hit: 0 store_miss: 0 count_else: 0 count_else: 0

 PQ_overflow: 9233353 PQ_boundry_check: 32843

 Bucket              cumulative_count                No_of_Late_PKT                        Average
[0:19]                         13306                          1286                            10
[20:39]                         47010                          1605                            29
[40:59]                         98641                          1981                            49
[60:79]                        112630                          1730                            65
[80:99]                         38409                           428                            89
[100:119]                         36764                           336                           109
[120:139]                        108980                           830                           131
[140:159]                        540581                          3560                           151
[160:179]                        773850                          4650                           166
[180:199]                         15495                            83                           186
[200:219]                        125661                           442                           284

 RQ_Late_count          0
 Average no of cycles a packet late: 112

DRAM Statistics
 CHANNEL 0
 RQ ROW_BUFFER_HIT:    1056403  ROW_BUFFER_MISS:    1192106
 DBUS_CONGESTED:     664408
 WQ ROW_BUFFER_HIT:       8445  ROW_BUFFER_MISS:      34937  FULL:          0

 AVG_CONGESTED_CYCLE: 6

CPU 0 Branch Prediction Accuracy: 88.5381% MPKI: 28.3563 Average ROB Occupancy at Mispredict: 13.1221

Branch types
NOT_BRANCH: 150520484 75.2602%
BRANCH_DIRECT_JUMP: 5163667 2.58183%
BRANCH_INDIRECT: 0 0%
BRANCH_CONDITIONAL: 33195561 16.5978%
BRANCH_DIRECT_CALL: 5259751 2.62988%
BRANCH_INDIRECT_CALL: 300210 0.150105%
BRANCH_RETURN: 5559961 2.77998%
BRANCH_OTHER: 0 0%

