
*** ChampSim Multicore Out-of-Order Simulator ***

Warmup Instructions: 50000000
Simulation Instructions: 200000000
Number of CPUs: 1
LLC sets: 2048
LLC ways: 16
Off-chip DRAM Size: 4096 MB Channels: 1 Width: 64-bit Data Rate: 3200 MT/s

CPU 0 runs /home/nupur/Champsim_timeliness/dpc3_traces/sssp-5.trace.gz
CPU 0 Bimodal branch predictor
Heartbeat CPU 0 instructions: 10000001 cycles: 3718065 heartbeat IPC: 2.68957 cumulative IPC: 2.68957 (Simulation time: 0 hr 0 min 29 sec) 
Heartbeat CPU 0 instructions: 20000000 cycles: 7711471 heartbeat IPC: 2.50413 cumulative IPC: 2.59354 (Simulation time: 0 hr 1 min 0 sec) 
counter 10000000
cache_pollution_percentage = 15.232
BLOCKS_TO_PREFETCH 15
Heartbeat CPU 0 instructions: 30000003 cycles: 11833864 heartbeat IPC: 2.42578 cumulative IPC: 2.5351 (Simulation time: 0 hr 1 min 31 sec) 
Heartbeat CPU 0 instructions: 40000000 cycles: 16038684 heartbeat IPC: 2.37822 cumulative IPC: 2.49397 (Simulation time: 0 hr 2 min 4 sec) 
counter 20000000
cache_pollution_percentage = 21.1328
BLOCKS_TO_PREFETCH 15
Heartbeat CPU 0 instructions: 50000003 cycles: 20278311 heartbeat IPC: 2.3587 cumulative IPC: 2.46569 (Simulation time: 0 hr 2 min 38 sec) 

Warmup complete CPU 0 instructions: 50000003 cycles: 20278311 (Simulation time: 0 hr 2 min 38 sec) 

counter 10000000
cache_pollution_percentage = 1.03671e-13
BLOCKS_TO_PREFETCH 15
counter 20000000
cache_pollution_percentage = 20.0771
BLOCKS_TO_PREFETCH 15
Heartbeat CPU 0 instructions: 60000002 cycles: 46676118 heartbeat IPC: 0.378819 cumulative IPC: 0.378819 (Simulation time: 0 hr 3 min 17 sec) 
counter 30000000
cache_pollution_percentage = 17.6299
BLOCKS_TO_PREFETCH 15
counter 40000000
cache_pollution_percentage = 18.5826
BLOCKS_TO_PREFETCH 15
counter 50000000
cache_pollution_percentage = 23.3815
BLOCKS_TO_PREFETCH 15
Heartbeat CPU 0 instructions: 70000001 cycles: 71573465 heartbeat IPC: 0.401649 cumulative IPC: 0.3899 (Simulation time: 0 hr 3 min 56 sec) 
counter 60000000
cache_pollution_percentage = 18.035
BLOCKS_TO_PREFETCH 15
counter 70000000
cache_pollution_percentage = 23.1552
BLOCKS_TO_PREFETCH 15
Heartbeat CPU 0 instructions: 80000000 cycles: 95269988 heartbeat IPC: 0.422003 cumulative IPC: 0.400044 (Simulation time: 0 hr 4 min 35 sec) 
counter 80000000
cache_pollution_percentage = 23.9746
BLOCKS_TO_PREFETCH 15
counter 90000000
cache_pollution_percentage = 19.8096
BLOCKS_TO_PREFETCH 15
Heartbeat CPU 0 instructions: 90000001 cycles: 119408504 heartbeat IPC: 0.414276 cumulative IPC: 0.40351 (Simulation time: 0 hr 5 min 16 sec) 
counter 100000000
cache_pollution_percentage = 19.3173
BLOCKS_TO_PREFETCH 15
counter 110000000
cache_pollution_percentage = 21.7494
BLOCKS_TO_PREFETCH 15
counter 120000000
cache_pollution_percentage = 19.5134
BLOCKS_TO_PREFETCH 15
Heartbeat CPU 0 instructions: 100000002 cycles: 143297312 heartbeat IPC: 0.418606 cumulative IPC: 0.406441 (Simulation time: 0 hr 5 min 56 sec) 
counter 130000000
cache_pollution_percentage = 18.025
BLOCKS_TO_PREFETCH 15
counter 140000000
cache_pollution_percentage = 18.9195
BLOCKS_TO_PREFETCH 15
Heartbeat CPU 0 instructions: 110000000 cycles: 167401579 heartbeat IPC: 0.414864 cumulative IPC: 0.407821 (Simulation time: 0 hr 6 min 36 sec) 
counter 150000000
cache_pollution_percentage = 17.7987
BLOCKS_TO_PREFETCH 15
counter 160000000
cache_pollution_percentage = 18.2724
BLOCKS_TO_PREFETCH 15
counter 170000000
cache_pollution_percentage = 16.3779
BLOCKS_TO_PREFETCH 15
Heartbeat CPU 0 instructions: 120000000 cycles: 190982941 heartbeat IPC: 0.424064 cumulative IPC: 0.410065 (Simulation time: 0 hr 7 min 16 sec) 
counter 180000000
cache_pollution_percentage = 16.5636
BLOCKS_TO_PREFETCH 15
counter 190000000
cache_pollution_percentage = 20.6656
BLOCKS_TO_PREFETCH 15
Heartbeat CPU 0 instructions: 130000000 cycles: 214060153 heartbeat IPC: 0.433328 cumulative IPC: 0.412835 (Simulation time: 0 hr 7 min 58 sec) 
counter 200000000
cache_pollution_percentage = 20.4668
BLOCKS_TO_PREFETCH 15
counter 210000000
cache_pollution_percentage = 17.9614
BLOCKS_TO_PREFETCH 15
Heartbeat CPU 0 instructions: 140000000 cycles: 237255665 heartbeat IPC: 0.431118 cumulative IPC: 0.41479 (Simulation time: 0 hr 8 min 38 sec) 
counter 220000000
cache_pollution_percentage = 16.5683
BLOCKS_TO_PREFETCH 15
counter 230000000
cache_pollution_percentage = 18.5223
BLOCKS_TO_PREFETCH 15
counter 240000000
cache_pollution_percentage = 16.1322
BLOCKS_TO_PREFETCH 15
Heartbeat CPU 0 instructions: 150000000 cycles: 260588174 heartbeat IPC: 0.428587 cumulative IPC: 0.416129 (Simulation time: 0 hr 9 min 19 sec) 
counter 250000000
cache_pollution_percentage = 17.3537
BLOCKS_TO_PREFETCH 15
counter 260000000
cache_pollution_percentage = 17.7345
BLOCKS_TO_PREFETCH 15
Heartbeat CPU 0 instructions: 160000000 cycles: 283536823 heartbeat IPC: 0.435755 cumulative IPC: 0.41784 (Simulation time: 0 hr 9 min 59 sec) 
counter 270000000
cache_pollution_percentage = 16.4249
BLOCKS_TO_PREFETCH 15
counter 280000000
cache_pollution_percentage = 16.1052
BLOCKS_TO_PREFETCH 15
Heartbeat CPU 0 instructions: 170000002 cycles: 306463603 heartbeat IPC: 0.436171 cumulative IPC: 0.419309 (Simulation time: 0 hr 10 min 39 sec) 
counter 290000000
cache_pollution_percentage = 16.9815
BLOCKS_TO_PREFETCH 15
counter 300000000
cache_pollution_percentage = 18.4656
BLOCKS_TO_PREFETCH 15
Heartbeat CPU 0 instructions: 180000000 cycles: 329507670 heartbeat IPC: 0.433951 cumulative IPC: 0.4204 (Simulation time: 0 hr 11 min 19 sec) 
counter 310000000
cache_pollution_percentage = 15.9968
BLOCKS_TO_PREFETCH 15
counter 320000000
cache_pollution_percentage = 20.3023
BLOCKS_TO_PREFETCH 15
counter 330000000
cache_pollution_percentage = 20.341
BLOCKS_TO_PREFETCH 15
Heartbeat CPU 0 instructions: 190000000 cycles: 351715535 heartbeat IPC: 0.450291 cumulative IPC: 0.422403 (Simulation time: 0 hr 12 min 0 sec) 
counter 340000000
cache_pollution_percentage = 15.7471
BLOCKS_TO_PREFETCH 15
counter 350000000
cache_pollution_percentage = 14.6072
BLOCKS_TO_PREFETCH 15
Heartbeat CPU 0 instructions: 200000001 cycles: 374359121 heartbeat IPC: 0.441626 cumulative IPC: 0.423632 (Simulation time: 0 hr 12 min 40 sec) 
counter 360000000
cache_pollution_percentage = 16.447
BLOCKS_TO_PREFETCH 15
counter 370000000
cache_pollution_percentage = 17.6401
BLOCKS_TO_PREFETCH 15
Heartbeat CPU 0 instructions: 210000000 cycles: 396806746 heartbeat IPC: 0.445481 cumulative IPC: 0.424935 (Simulation time: 0 hr 13 min 21 sec) 
counter 380000000
cache_pollution_percentage = 16.6078
BLOCKS_TO_PREFETCH 15
counter 390000000
cache_pollution_percentage = 15.5854
BLOCKS_TO_PREFETCH 15
Heartbeat CPU 0 instructions: 220000000 cycles: 419492083 heartbeat IPC: 0.440813 cumulative IPC: 0.425837 (Simulation time: 0 hr 14 min 1 sec) 
counter 400000000
cache_pollution_percentage = 15.8738
BLOCKS_TO_PREFETCH 15
counter 410000000
cache_pollution_percentage = 15.1991
BLOCKS_TO_PREFETCH 15
counter 420000000
cache_pollution_percentage = 15.7433
BLOCKS_TO_PREFETCH 15
Heartbeat CPU 0 instructions: 230000002 cycles: 441837645 heartbeat IPC: 0.447516 cumulative IPC: 0.426986 (Simulation time: 0 hr 14 min 41 sec) 
counter 430000000
cache_pollution_percentage = 17.7519
BLOCKS_TO_PREFETCH 15
counter 440000000
cache_pollution_percentage = 16.7533
BLOCKS_TO_PREFETCH 15
Heartbeat CPU 0 instructions: 240000002 cycles: 464202927 heartbeat IPC: 0.447122 cumulative IPC: 0.428001 (Simulation time: 0 hr 15 min 22 sec) 
counter 450000000
cache_pollution_percentage = 16.8336
BLOCKS_TO_PREFETCH 15
counter 460000000
cache_pollution_percentage = 15.7434
BLOCKS_TO_PREFETCH 15
Heartbeat CPU 0 instructions: 250000000 cycles: 486657566 heartbeat IPC: 0.445342 cumulative IPC: 0.428836 (Simulation time: 0 hr 16 min 3 sec) 
Finished CPU 0 instructions: 200000001 cycles: 466379256 cumulative IPC: 0.428836 (Simulation time: 0 hr 16 min 3 sec) 

ChampSim completed all CPUs

Region of Interest Statistics

CPU 0 cumulative IPC: 0.428836 instructions: 200000001 cycles: 466379256
L1D TOTAL     ACCESS:   43428102  HIT:   32609490  MISS:   10818612
L1D LOAD      ACCESS:   41373371  HIT:   31026208  MISS:   10347163         0
L1D RFO       ACCESS:    2054731  HIT:    1583282  MISS:     471449         0
L1D PREFETCH  ACCESS:          0  HIT:          0  MISS:          0         0
L1D WRITEBACK ACCESS:          0  HIT:          0  MISS:          0         0
L1D AVERAGE MISS LATENCY: 92.549 cycles
L1I TOTAL     ACCESS:   25204242  HIT:   25204242  MISS:          0
L1I LOAD      ACCESS:   25204242  HIT:   25204242  MISS:          0         0
L1I RFO       ACCESS:          0  HIT:          0  MISS:          0         0
L1I PREFETCH  ACCESS:          0  HIT:          0  MISS:          0         0
L1I WRITEBACK ACCESS:          0  HIT:          0  MISS:          0         0
L1I AVERAGE MISS LATENCY: -nan cycles
L2C TOTAL     ACCESS:   12171377  HIT:    3966898  MISS:    8204479
L2C LOAD      ACCESS:   10347163  HIT:    2314024  MISS:    8033139         0
L2C RFO       ACCESS:     471437  HIT:     301509  MISS:     169928         0
L2C PREFETCH  ACCESS:          0  HIT:          0  MISS:          0         0
L2C WRITEBACK ACCESS:    1352777  HIT:    1351365  MISS:       1412         0
L2C AVERAGE MISS LATENCY: 101.733 cycles
 AMAT: 1.67408 cycles
LLC TOTAL     ACCESS:   34634596  HIT:   23834143  MISS:   10800453
LLC LOAD      ACCESS:    8033138  HIT:    4552822  MISS:    3480316         0
LLC RFO       ACCESS:     169927  HIT:      53754  MISS:     116173         0
LLC PREFETCH  ACCESS:   25592099  HIT:   18457619  MISS:    7134480         0
LLC WRITEBACK ACCESS:     839432  HIT:     769948  MISS:      69484         0
LLC PREFETCH  REQUESTED:   80978644  ISSUED:   75756711  USEFUL:    2682152  USELESS:    5892109 pf_FILL:    8580496
LLC ON_TIME:    2682152  LATE:     176957  LATE_CONSIDER:     176957
LLC AVERAGE MISS LATENCY: 188.88 cycles
 AMAT: 3.49472 cycles
Major fault: 0 Minor fault: 36712
LLC Next Line Prefetcher Final Stats: 

Queue level details

 RQ_Merged:          0 RQ_Access:    8203069 RQ_FULL:          0 RQ_ToCache:    8203067 RQ_FORWARDED:          0
 WQ_Merged:          0 WQ_Access:     839432 WQ_FULL:          0 WQ_ToCache:     839432 WQ_FORWARDED:          5
 PQ_Merged:   44474065 PQ_Access:   75756711 PQ_FULL:          0 PQ_ToCache:   31282643 PQ_FORWARDED:          0

############Universal_Stats##############

LOAD  Access:    8033140 HIT:    4552823 MISS:    3480317 STALL:          3 MSHR_MERGED:     176956

RFO  Access:     169928 HIT:      53755 MISS:     116173 STALL:          0 MSHR_MERGED:          1

PREFETCH  Access:   27009182 HIT:   18457622 MISS:    8551560 STALL:       1836 MSHR_MERGED:    1240121

WRITEBACK  Access:     839432 HIT:     769948 MISS:      69484 STALL:          0 MSHR_MERGED:          0

 load_hit: 0 load_miss: 0 store_hit: 0 store_miss: 0 count_else: 0 count_else: 0

 PQ_overflow: 5197793 PQ_boundry_check: 24140

 Bucket              cumulative_count                No_of_Late_PKT                        Average
[0:19]                        186013                         18622                             9
[20:39]                        525460                         17931                            29
[40:59]                        867297                         17446                            49
[60:79]                       1261119                         18261                            69
[80:99]                       1212623                         13595                            89
[100:119]                       1258778                         11505                           109
[120:139]                       1372294                         10591                           129
[140:159]                       1708122                         11379                           150
[160:179]                       2599375                         15375                           169
[180:199]                       1840873                          9741                           188
[200:219]                       8875065                         32511                           272

 RQ_Late_count          0
 Average no of cycles a packet late: 122

DRAM Statistics
 CHANNEL 0
 RQ ROW_BUFFER_HIT:    6231830  ROW_BUFFER_MISS:    4498666
 DBUS_CONGESTED:    4876480
 WQ ROW_BUFFER_HIT:     357212  ROW_BUFFER_MISS:     406982  FULL:          0

 AVG_CONGESTED_CYCLE: 6

CPU 0 Branch Prediction Accuracy: 97.5803% MPKI: 3.59894 Average ROB Occupancy at Mispredict: 148.58

Branch types
NOT_BRANCH: 170252779 85.1264%
BRANCH_DIRECT_JUMP: 9217196 4.6086%
BRANCH_INDIRECT: 0 0%
BRANCH_CONDITIONAL: 20527371 10.2637%
BRANCH_DIRECT_CALL: 1324 0.000662%
BRANCH_INDIRECT_CALL: 0 0%
BRANCH_RETURN: 1324 0.000662%
BRANCH_OTHER: 0 0%


gzip: stdout: Broken pipe
